LAMMPS (23 Jun 2022)
units metal
box tilt large
atom_style atomic

boundary p p p
read_data /home/iwamura/struct-searcher/data/outputs/Ti-Al/csp/n_atom_01/Ti0-Al1/multi_start/01544/initial_structure_01
Reading data file ...
  triclinic box = (0 0 0) to (3.8735948 4.6995702 4.5374256) with tilt (0.31218079 0.98782997 1.7220267)
  reading atoms ...
  1 atoms

pair_style polymlp
pair_coeff * * /home/iwamura/struct-searcher/data/inputs/potentials/Ti-Al/gtinv-411/mlp.lammps Al

# What to monitor during minimization
thermo 1
thermo_style custom step temp pe etotal press fnorm
thermo_modify norm no

# Rebuild neighbor list at every timestep
neigh_modify delay 0 every 1 check yes one 100000 page 1000000

# Do relaxation with a bunch of degrees of freedom
fix ftri all box/relax tri 0.0
minimize 0.0 0.001 50000 500000
Generated 0 of 0 mixed pair_coeff terms from geometric mixing rule
  update every 1 steps, delay 0 steps, check yes
Step          Temp          PotEng         TotEng         Press          Fnorm
0   0             -0.9692611     -0.9692611     -30130.128      7.1510017e-17
                                         .
                                         .
                                         .
Loop time of 6.51544 on 1 procs for 9804 steps with 1 atoms

Minimization stats:
  Stopping criterion = force tolerance
  Energy initial, next-to-last, final =
  Force two-norm initial, final = 2.765598 0.00074129901
  Force max component initial, final = 2.0468474 0.00072432832
  Final line search alpha, max atom move = 0.065187812 4.7217379e-05
  Iterations, force evaluations = 9804 9804

# Output final structure
write_data /home/iwamura/struct-searcher/data/outputs/Ti-Al/csp/n_atom_01/Ti0-Al1/multi_start/01544/final_structure_01
System init for write_data ...
Generated 0 of 0 mixed pair_coeff terms from geometric mixing rule
