LAMMPS (23 Jun 2022)
units metal
box tilt large
atom_style atomic

boundary p p p
read_data /home/iwamura/struct-searcher/data/outputs/Ti-Al/csp/n_atom_03/Ti1-Al2/multi_start/01270/initial_structure_01
Reading data file ...
  triclinic box = (0 0 0) to (1.4136692 5.9881389 5.8116994) with tilt (0.11341376 0.15192244 1.5837519)
  reading atoms ...
  3 atoms

pair_style polymlp
pair_coeff * * /home/iwamura/struct-searcher/data/inputs/potentials/Ti-Al/gtinv-411/mlp.lammps Ti Al

# What to monitor during minimization
thermo 1
thermo_style custom step temp pe etotal press fnorm
thermo_modify norm no

# Rebuild neighbor list at every timestep
neigh_modify delay 0 every 1 check yes one 100000 page 1000000

# Do relaxation with a bunch of degrees of freedom
fix ftri all box/relax tri 0.0
minimize 0.0 0.001 50000 500000
Generated 0 of 1 mixed pair_coeff terms from geometric mixing rule
  update every 1 steps, delay 0 steps, check yes
Step          Temp          PotEng         TotEng         Press          Fnorm
0   0              976.43269      976.43269      58000133       21135.604
                                             .
                                             .
                                             .
Loop time of 138.875 on 1 procs for 11256 steps with 3 atoms

Minimization stats:
  Stopping criterion = quadratic factors are zero
  Energy initial, next-to-last, final =
  Force two-norm initial, final = 24357.278 2.8335137e+14
  Force max component initial, final = 13675.477 1.8231181e+14
  Final line search alpha, max atom move = 2.8190831e-32 5.1395212e-18
  Iterations, force evaluations = 11256 12602

# Output final structure
write_data /home/iwamura/struct-searcher/data/outputs/Ti-Al/csp/n_atom_03/Ti1-Al2/multi_start/01270/final_structure_01
System init for write_data ...
Generated 0 of 1 mixed pair_coeff terms from geometric mixing rule
