LAMMPS (23 Jun 2022)
units metal
box tilt large
atom_style atomic

boundary p p p
read_data /home/iwamura/struct-searcher/data/outputs/Ti-Al/csp/n_atom_03/Ti1-Al2/multi_start/01961/initial_structure_01
Reading data file ...
  triclinic box = (0 0 0) to (1.6070955 5.3565071 5.4915119) with tilt (-0.39322251 0.64725976 0.98115449)
  reading atoms ...
  3 atoms

pair_style polymlp
pair_coeff * * /home/iwamura/struct-searcher/data/inputs/potentials/Ti-Al/gtinv-411/mlp.lammps Ti Al

# What to monitor during minimization
thermo 1
thermo_style custom step temp pe etotal press fnorm
thermo_modify norm no

# Rebuild neighbor list at every timestep
neigh_modify delay 0 every 1 check yes one 100000 page 1000000

# Do relaxation with a bunch of degrees of freedom
fix ftri all box/relax tri 0.0
minimize 0.0 0.001 50000 500000
Generated 0 of 1 mixed pair_coeff terms from geometric mixing rule
  update every 1 steps, delay 0 steps, check yes
Step          Temp          PotEng         TotEng         Press          Fnorm
0   0              301.18903      301.18903     -5348693        4224.9753
                                             .
                                             .
                                             .
Loop time of 57.5293 on 1 procs for 9920 steps with 3 atoms

Minimization stats:
  Stopping criterion = linesearch alpha is zero
  Energy initial, next-to-last, final =
  Force two-norm initial, final = 5290.371 1.7863038e+10
  Force max component initial, final = 3048.1489 1.0258491e+10
  Final line search alpha, max atom move = 1.6842654e-26 1.7278022e-16
  Iterations, force evaluations = 9920 10172

# Output final structure
write_data /home/iwamura/struct-searcher/data/outputs/Ti-Al/csp/n_atom_03/Ti1-Al2/multi_start/01961/final_structure_01
System init for write_data ...
Generated 0 of 1 mixed pair_coeff terms from geometric mixing rule
