LAMMPS (23 Jun 2022)
units metal
box tilt large
atom_style atomic

boundary p p p
read_data /home/iwamura/struct-searcher/data/outputs/Ti-Al/csp/n_atom_04/Ti3-Al1/multi_start/00001/initial_structure
Reading data file ...
  triclinic box = (0 0 0) to (5.6180144 6.3538707 7.0030504) with tilt (1.7067388 0.58002563 1.2974865)
  reading atoms ...
  4 atoms

pair_style polymlp
pair_coeff * * /home/iwamura/struct-searcher/data/inputs/potentials/Ti-Al/gtinv-411/mlp.lammps Ti Al

# What to monitor during minimization
thermo 1
thermo_style custom step temp pe etotal press fnorm
thermo_modify norm no

# Rebuild neighbor list at every timestep
neigh_modify delay 0 every 1 check yes one 100000 page 1000000

# Do relaxation with a bunch of degrees of freedom
fix ftri all box/relax tri 0.0
minimize 0.0 1e-8 5000 50000
Generated 0 of 1 mixed pair_coeff terms from geometric mixing rule
  update every 1 steps, delay 0 steps, check yes
Step          Temp          PotEng         TotEng         Press          Fnorm
0   0              3061.3282      3061.3282      31880586       41368.226
                                        .
                                        .
                                        .
Loop time of 175.757 on 1 procs for 5000 steps with 4 atoms

Minimization stats:
  Stopping criterion = max iterations
  Energy initial, next-to-last, final =
  Force two-norm initial, final = 45096.08 2248107.7
  Force max component initial, final = 24406.985 1298341.8
  Final line search alpha, max atom move = 8.6458154e-13 1.1225223e-06
  Iterations, force evaluations = 5000 38259

# Output final structure
write_data /home/iwamura/struct-searcher/data/outputs/Ti-Al/csp/n_atom_04/Ti3-Al1/multi_start/00001/final_structure
System init for write_data ...
Generated 0 of 1 mixed pair_coeff terms from geometric mixing rule
